examples/PFNET_Archives/min_ex.raw
0,   100.00, 33, 0, 1, 60.00     / PSS(R)E 33 RAW created by rawd33  WED, JUN 26 2019  15:31


     1,'            ',   1.0000,3,   1,   1,   1,1.00000,   0.0000,1.10000,0.90000,1.10000,0.90000
   101,'            ',   1.0000,1,   1,   1,   1,1.01005,  -0.5673,1.10000,0.90000,1.10000,0.90000
 0 /End of Bus data, Begin Load data
   101,'1 ',1,   1,   1,     1.000,     0.000,     0.000,     0.000,     0.000,     0.000,   1,1,0
 0 /End of Load data, Begin Fixed shunt data
   101,'1 ',1,     0.000,     1.000
 0 /End of Fixed shunt data, Begin Generator data
     1,'1 ',     1.000,    -1.000,     1.000,     0.000,1.00000,     0,     1.000, 0.00000E+0, 1.00000E+0, 0.00000E+0, 0.00000E+0,1.00000,1,  100.0,     2.000,     0.000,   1,1.0000,0,0,0,0,0,0,0,0
 0 /End of Generator data, Begin Branch data
     1,   101,'1 ', 0.00000E+0, 1.00000E+0,   0.00000,    2.00,    1.00,    0.00,  0.00000,  0.00000,  0.00000,  0.00000,1,1,   0.00,   1,1.0000,0,0,0,0,0,0
 0 /End of Branch data, Begin Transformer data
 0 /End of Transformer data, Begin Area interchange data
 0 /End of Area interchange data, Begin Two-terminal dc line data
 0 /End of Two-terminal dc line data, Begin VSC dc line data
 0 /End of VSC dc line data, Begin Impedance correction table data
 0 /End of Impedance correction table data, Begin Multi-terminal dc line data
 0 /End of Multi-terminal dc line data, Begin Multi-section line data
 0 /End of Multi-section line data, Begin Zone data
 0 /End of Zone data, Begin Inter-area transfer data
 0 /End of Inter-area transfer data, Begin Owner data
 0 /End of Owner data, Begin FACTS device data
 0 /End of FACTS device data, Begin Switched shunt data
 0 /End of Switched shunt data, Begin GNE device data
 0 /End of GNE device data, Begin Induction machine data
 0 /End of Induction machine data
Q
